
**** 11/19/22 21:10:21 ******* PSpice 17.4.0 (Nov 2018) ******* ID# 0 ********

 ** Profile: "SCHEMATIC1-bias"  [ C:\Users\Robert\Desktop\proiect 1\FINALLLLL\proiect_osc_triunghiular-pspicefiles\schematic1\bias.si


 ****     CIRCUIT DESCRIPTION


******************************************************************************




** Creating circuit file "bias.cir" 
** WARNING: THIS AUTOMATICALLY GENERATED FILE MAY BE OVERWRITTEN BY SUBSEQUENT SIMULATIONS

*Libraries: 
* Profile Libraries :
* Local Libraries :
.LIB "C:/Users/Robert/Desktop/proiect 1/lib_modelepspice_anexa_1/modele_a1_lib/bzx84c2v7.lib" 
.LIB "C:/Users/Robert/Desktop/proiect 1/lib_modelepspice_anexa_1/modele_a1_lib/1n4148.lib" 
.LIB "C:/Users/Robert/Desktop/proiect 1/lib_modelepspice_anexa_1/modele_a1_lib/bc856b.lib" 
.LIB "C:/Users/Robert/Desktop/proiect 1/lib_modelepspice_anexa_1/modele_a1_lib/bc846b.lib" 
.LIB "C:/Users/Robert/Desktop/proiect 1/lib_modelepspice_anexa_1/modele_a1_lib/bc817-25.lib" 
.LIB "C:/Users/Robert/Desktop/proiect 1/lib_modelepspice_anexa_1/modele_a1_lib/bc807-25.lib" 
* From [PSPICE NETLIST] section of C:\Users\Robert\AppData\Roaming\SPB_Data\cdssetup\OrCAD_PSpice\17.4.0\PSpice.ini file:
.lib "C:\Users\Robert\Desktop\proiect 1\Lib_ModelePSpice_Anexa_1\Lib_ModelePSpice_Anexa_1\Modele_A1_lib\MMBFJ309LT1G.lib" 
.lib "C:\Users\Robert\Desktop\proiect 1\Lib_ModelePSpice_Anexa_1\Lib_ModelePSpice_Anexa_1\Modele_A1_lib\MMBFJ177LT1G.lib" 
.lib "C:\Users\Robert\Desktop\proiect 1\Lib_ModelePSpice_Anexa_1\Lib_ModelePSpice_Anexa_1\Modele_A1_lib\MJD32CG.lib" 
.lib "C:\Users\Robert\Desktop\proiect 1\Lib_ModelePSpice_Anexa_1\Lib_ModelePSpice_Anexa_1\Modele_A1_lib\MJD31CG.lib" 
.lib "C:\Users\Robert\Desktop\proiect 1\Lib_ModelePSpice_Anexa_1\Lib_ModelePSpice_Anexa_1\Modele_A1_lib\IRFR120NPBF.lib" 
.lib "C:\Users\Robert\Desktop\proiect 1\Lib_ModelePSpice_Anexa_1\Lib_ModelePSpice_Anexa_1\Modele_A1_lib\BZX84C10.lib" 
.lib "C:\Users\Robert\Desktop\proiect 1\Lib_ModelePSpice_Anexa_1\Lib_ModelePSpice_Anexa_1\Modele_A1_lib\BZX84C8V2.lib" 
.lib "C:\Users\Robert\Desktop\proiect 1\Lib_ModelePSpice_Anexa_1\Lib_ModelePSpice_Anexa_1\Modele_A1_lib\BZX84C6V8.lib" 
.lib "C:\Users\Robert\Desktop\proiect 1\Lib_ModelePSpice_Anexa_1\Lib_ModelePSpice_Anexa_1\Modele_A1_lib\BZX84C6V2.lib" 
.lib "C:\Users\Robert\Desktop\proiect 1\Lib_ModelePSpice_Anexa_1\Lib_ModelePSpice_Anexa_1\Modele_A1_lib\BZX84C5V6.lib" 
.lib "C:\Users\Robert\Desktop\proiect 1\Lib_ModelePSpice_Anexa_1\Lib_ModelePSpice_Anexa_1\Modele_A1_lib\BZX84C5V1.lib" 
.lib "C:\Users\Robert\Desktop\proiect 1\Lib_ModelePSpice_Anexa_1\Lib_ModelePSpice_Anexa_1\Modele_A1_lib\BZX84C2V7.lib" 
.lib "C:\Users\Robert\Desktop\proiect 1\Lib_ModelePSpice_Anexa_1\Lib_ModelePSpice_Anexa_1\Modele_A1_lib\BC856B.lib" 
.lib "C:\Users\Robert\Desktop\proiect 1\Lib_ModelePSpice_Anexa_1\Lib_ModelePSpice_Anexa_1\Modele_A1_lib\BC846B.lib" 
.lib "C:\Users\Robert\Desktop\proiect 1\Lib_ModelePSpice_Anexa_1\Lib_ModelePSpice_Anexa_1\Modele_A1_lib\BC817-25.lib" 
.lib "C:\Users\Robert\Desktop\proiect 1\Lib_ModelePSpice_Anexa_1\Lib_ModelePSpice_Anexa_1\Modele_A1_lib\BC807-25.lib" 
.lib "C:\Users\Robert\Desktop\proiect 1\Lib_ModelePSpice_Anexa_1\Lib_ModelePSpice_Anexa_1\Modele_A1_lib\1N4148.lib" 
.lib "nom.lib" 

*Analysis directives: 
.TRAN  0 2m  0 0.01m SKIPBP 
.OPTIONS ADVCONV
.PROBE64 V(alias(*)) I(alias(*)) W(alias(*)) D(alias(*)) NOISE(alias(*)) 
.INC "..\SCHEMATIC1.net" 



**** INCLUDING SCHEMATIC1.net ****
* source PROIECT_OSC_TRIUNGHIULAR
X_POT1         N112512 N112512 VDD POT PARAMS: SET=1 VALUE=50k
X_POT2         VEE VEE N105962 POT PARAMS: SET=1 VALUE=50k
Q_Q1         N105158 N105014 N142027 QBC856B 
Q_Q14         VDD N105168 N105528 QBC846B 
Q_Q8         VEE N105164 N105322 QBC856B 
R_R5         N142027 N112512  1.5k TC=0,0 
R_R4         N112512 VDD  15k TC=0,0 
Q_Q2         N105158 N105684 N142019 QBC846B 
D_D2         N105014 VDD BZX84-C2V7 
D_D1         VEE N105684 BZX84-C2V7 
Q_Q7         N105164 N108998 VDD QBC856B 
Q_Q9         VDD N105164 N105322 QBC846B 
R_R16         VEE N105464  22k TC=0,0 
Q_Q12         N105168 N105128 VDD QBC856B 
R_R8         VEE N108528  47k TC=0,0 
R_R19         VEE N105168  10K TC=0,0 
Q_Q11         N109664 N105528 N105464 QBC846B 
R_R3         VEE N105962  15k TC=0,0 
Q_Q10         N105128 N126262 N105464 QBC846B 
Q_Q13         VEE N105168 N105528 QBC856B 
Q_Q15         N108998 N126084 N108528 QBC846B 
Q_Q16         N108991 0 N108528 QBC846B 
Q_Q17         N108998 N108991 VDD QBC856B 
Q_Q18         N108991 N108991 VDD QBC856B 
Q_Q20         N109664 N109664 VDD QBC856B 
Q_Q19         N105128 N109664 VDD QBC856B 
R_R25         N151733 N105528  10k TC=0,0 
X_POT3         N126327 N126262 N105158 POT PARAMS: SET=0.9 VALUE=500k
R_R32         0 N126327  47k TC=0,0 
R_R34         N105962 N142019  1.5k TC=0,0 
R_R38         N136654 N105014  2.2k TC=0,0 
R_R39         N105684 N136658  2.2k TC=0,0 
R_R40         N136658 N105322  2.2k TC=0,0 
R_R41         N105322 N136654  2.2k TC=0,0 
R_R43         N105684 N136718  2.2k TC=0,0 
R_R42         N136718 N105322  2.2k TC=0,0 
R_R44         N136852 N105014  2.2k TC=0,0 
R_R45         N105322 N136852  2.2k TC=0,0 
R_R28         N105158 N126084  150k TC=0,0 
C_C2         N105164 N105322  10p  TC=0,0 
R_R54         N144715 N151868  510 TC=0,0 
R_R53         N105164 N1446051  510 TC=0,0 
R_R51         N1445831 N151868  510 TC=0,0 
R_R56         VEE N144719  510 TC=0,0 
R_R52         N1446051 N1445831  510 TC=0,0 
R_R55         N144719 N144715  510 TC=0,0 
V_V1         VDD 0 18
V_V2         VEE 0 -18
C_C3         N105168 N105528  10p  TC=0,0 
C_C4         0 N105158  470p  TC=0,0 
C_C1         0 N105158  100p  TC=0,0 
R_R57         0 N151733  10k TC=0,0 
R_R58         N126084 N105322  220k TC=0,0 

**** RESUMING bias.cir ****
.END

**** 11/19/22 21:10:21 ******* PSpice 17.4.0 (Nov 2018) ******* ID# 0 ********

 ** Profile: "SCHEMATIC1-bias"  [ C:\Users\Robert\Desktop\proiect 1\FINALLLLL\proiect_osc_triunghiular-pspicefiles\schematic1\bias.si


 ****     Diode MODEL PARAMETERS


******************************************************************************




               BZX84-C2V7      
          IS  110.880000E-18 
           N     .92657      
         ISR    1.515900E-06 
         IKF  147.68         
          BV    2.7639       
         IBV     .06977      
          RS     .85899      
          TT   17.889000E-09 
         CJO  344.690000E-12 
          VJ     .72935      
           M     .31964      


**** 11/19/22 21:10:21 ******* PSpice 17.4.0 (Nov 2018) ******* ID# 0 ********

 ** Profile: "SCHEMATIC1-bias"  [ C:\Users\Robert\Desktop\proiect 1\FINALLLLL\proiect_osc_triunghiular-pspicefiles\schematic1\bias.si


 ****     BJT MODEL PARAMETERS


******************************************************************************




               QBC856B         QBC846B         
               PNP             NPN             
       LEVEL    1               1            
          IS   20.140000E-15   18.220000E-15 
          BF  315.3           324.4          
          NF     .9974           .9932       
         VAF   39.15           82            
         IKF     .079            .109        
         ISE    6.578000E-15  289.400000E-18 
          NE    1.45            1.4          
          BR    8.68            8.29         
          NR     .9952           .9931       
         VAR    9.5            17.9          
         IKR     .09             .09         
         ISC   16.330000E-15    9.982000E-12 
          NC    1.15            1.763        
         ISS    0               0            
          RB   10              10            
         RBM    5.000000E-06    5            
         IRB    5.000000E-06    5.000000E-06 
          RE     .663            .649        
          RC     .718            .7014       
         CJE   11.350000E-12   12.440000E-12 
         VJE     .7071           .7579       
         MJE     .3808           .3656       
         CJC    6.395000E-12    3.347000E-12 
         VJC     .4951           .5463       
         MJC     .44             .391        
        XCJC     .6288           .6193       
         CJS    0               0            
         VJS     .75             .75         
         MJS     .333            .333        
          FC     .9059           .979        
          TF  654.600000E-12  490.800000E-12 
         XTF    5.387           9.51         
         VTF    6.245           2.927        
         ITF     .2108           .3131       
          TR   55.000000E-09   90.000000E-09 
          KF    0               0            
          AF    1               1            
          CN    2.2             2.42         
           D     .52             .87         



          JOB CONCLUDED

**** 11/19/22 21:10:21 ******* PSpice 17.4.0 (Nov 2018) ******* ID# 0 ********

 ** Profile: "SCHEMATIC1-bias"  [ C:\Users\Robert\Desktop\proiect 1\FINALLLLL\proiect_osc_triunghiular-pspicefiles\schematic1\bias.si


 ****     JOB STATISTICS SUMMARY


******************************************************************************



  Total job time (using Solver 1)   =         .22
